data_RIO13
_cell_length_a    15.0530000000
_cell_length_b    15.0530000000
_cell_length_c    3.6146000000
_cell_angle_alpha 90.0000000000
_cell_angle_beta  90.0000000000
_cell_angle_gamma 120.0000000000
_cell_volume      709.3114969540
 
_symmetry_space_group_name_H-M "P 6/m"
_symmetry_Int_Tables_number 175
_space_group.reference_setting '175:-P 6'
_space_group.transform_Pp_abc a,b,c;0,0,0
 
loop_
_space_group_symop_operation_xyz
 x,y,z
 x-y,x,z
 -y,x-y,z
 -x,-y,z
 -x+y,-x,z
 y,-x+y,z
 -x,-y,-z
 -x+y,-x,-z
 y,-x+y,-z
 x,y,-z
 x-y,x,-z
 -y,x-y,-z
 
loop_
_atom_site_label
_atom_site_type_symbol
_atom_site_symmetry_multiplicity
_atom_site_fract_x
_atom_site_fract_y
_atom_site_fract_z
_atom_site_occupancy
_atom_site_charge 
H1 H   6 0.33346 0.43294  0.50000 1.00000  0.036
H2 H   6 0.11777 0.45617  0.50000 1.00000  0.035
C1 C   6 0.22681 0.63610  0.50000 1.00000 -0.041
C2 C   6 0.25850 0.56155  0.50000 1.00000 -0.186
C3 C   6 0.39330 0.51391  0.50000 1.00000 -0.077
N1 N   6 0.46004 -0.04962 0.50000 1.00000 -0.214
O1 O   6 0.18922 0.46192  0.50000 1.00000 -0.381
